calibration/EXAMPLE.glm
\\ USE THIS GUY FOR TESTING CALIBRATION.

clock {
	timezone PST+8PDT;
	starttime '2000-01-01 00:00:00';
	stoptime '2000-01-01 00:00:00';
};

#set minimum_timestep=60;
#set profiler=1;
#set relax_naming_rules=1;
module generators;
module tape;
module residential {
	implicit_enduses NONE;
};

module powerflow {
	solver_method NR;
	NR_iteration_limit 50;
};

object node {
	phases ABCN;
	name FRIENDSHIP;
	bustype SWING;
	longitude 800.0;
	nominal_voltage 7200.0;
	latitude 603.623393993;
};

object regulator_configuration {
	Control OUTPUT_VOLTAGE;
	Type A;
	raise_taps 16.0;
	name REG27-CONFIG;
	band_center 123.9996;
	current_transducer_ratio 328;
	tap_pos_B 1;
	tap_pos_C 1;
	time_delay 30.0;
	connect_type WYE_WYE;
	regulation 0.1;
	CT_phase ABC;
	power_transducer_ratio 60.0;
	lower_taps 16.0;
	tap_pos_A 1;
	control_level INDIVIDUAL;
	PT_phase ABC;
	band_width 2.000004;
};

object regulator {
	phases ACB;
	from FRIENDSHIP;
	name REG27;
	longitude 794.827590509;
	to node958175REG27;
	latitude 533.055734649;
	configuration REG27-CONFIG;
};

object underground_line {
	phases ACB;
	from node958175REG27;
	name 958175;
	longitude 799.410100044;
	to nodeRFRN1-R0001x1958175;
	length 24;
	latitude 603.526121671;
	configuration 978204-LINECONFIG;
};

object fuse {
	phases ACB;
	from nodeRFRN1-R0001x1958175;
	name RFRN1-R0001x1;
	current_limit 9999.0 A;
	longitude 799.410100044;
	to node958178RFRN1-R0001x1;
	latitude 603.526121671;
};

object underground_line {
	phases ACB;
	from node958178RFRN1-R0001x1;
	name 958178;
	to node958179958178;
	longitude 790.577543944;
	length 780;
	latitude 608.195193126;
	configuration 978204-LINECONFIG;
};

object underground_line {
	phases ACB;
	from node958179958178;
	name 958179;
	longitude 780.134720395;
	to node978195958179;
	length 860;
	latitude 602.650670774;
	configuration 978204-LINECONFIG;
};

object underground_line_conductor {
	conductor_gmr 0.02603;
	conductor_resistance 0.23232;
	shield_resistance 0.000000;
	neutral_gmr 0.0317574;
	neutral_strands 16;
	conductor_diameter 0.810000;
	name 978195-LINECONFIGunderground_line_conductor604;
	insulation_relative_permitivitty 2.4;
	outer_diameter 1.580004;
	neutral_resistance 702.24;
	neutral_diameter 0.160008;
	shield_gmr 0.000000;
};

object underground_line {
	phases ACB;
	from node978195958179;
	name 978195;
	longitude 749.890390211;
	to node978172978195;
	length 1970;
	latitude 602.285899566;
	configuration 978204-LINECONFIG;
};

object underground_line {
	phases ACB;
	from node978172978195;
	name 978172;
	longitude 737.805412731;
	to node978174978172;
	length 780;
	latitude 602.431808049;
	configuration 978204-LINECONFIG;
};

object underground_line {
	phases B;
	from node978174978172;
	name 978174;
	longitude 737.885128941;
	to nodeF28653x1978174;
	length 30;
	latitude 602.796579257;
	configuration 929369-LINECONFIG;
};

object fuse {
	phases B;
	from nodeF28653x1978174;
	name F28653x1;
	current_limit 9999.0 A;
	longitude 737.885128941;
	to node978192F28653x1;
	latitude 602.796579257;
};

object underground_line {
	phases B;
	from node978192F28653x1;
	name 978192;
	longitude 738.905496433;
	to node949317978192;
	length 40;
	latitude 602.893851579;
	configuration 929369-LINECONFIG;
};

object underground_line {
	phases B;
	from node949317978192;
	name 949317;
	longitude 737.661923552;
	to node949318949317;
	length 469;
	latitude 613.545170835;
	configuration 929369-LINECONFIG;
};

object underground_line {
	phases B;
	from node949318949317;
	name 949318;
	to nodeT14104949318;
	longitude 737.677866794;
	length 519;
	latitude 626.190572691;
	configuration 929369-LINECONFIG;
};

object underground_line {
	phases B;
	from node949318949317;
	name 949319;
	longitude 737.119853322;
	to nodeT14100949319;
	length 40;
	latitude 613.350626191;
	configuration 929369-LINECONFIG;
};

object underground_line {
	phases C;
	from node978174978172;
	name 978200;
	to nodeR2911x1978200;
	longitude 741.823109729;
	length 314;
	latitude 603.623393993;
	configuration 970069-LINECONFIG;
};

object fuse {
	phases C;
	from nodeR2911x1978200;
	name R2911x1;
	current_limit 9999.0 A;
	longitude 741.823109729;
	to node839461R2911x1;
	latitude 603.623393993;
};

object overhead_line {
	phases CN;
	from node839461R2911x1;
	name 839461;
	longitude 741.90282594;
	to node839464839461;
	length 60;
	latitude 605.93361164;
	configuration 840428-LINECONFIG;
};

object overhead_line {
	phases CN;
	from node839464839461;
	name 839464;
	longitude 741.90282594;
	to node839466839464;
	length 111;
	latitude 607.90337616;
	configuration 840428-LINECONFIG;
};

object overhead_line {
	phases CN;
	from node839466839464;
	name 839466;
	longitude 741.695563793;
	to node839469839466;
	length 207;
	latitude 613.691079317;
	configuration 840428-LINECONFIG;
};

object overhead_line {
	phases CN;
	from node839469839466;
	name 839469;
	longitude 741.711507035;
	to node839471839469;
	length 226;
	latitude 619.186965509;
	configuration 840428-LINECONFIG;
};

object overhead_line {
	phases CN;
	from node839471839469;
	name 839471;
	longitude 741.823109729;
	to node956777839471;
	length 120;
	latitude 622.105135168;
	configuration 840428-LINECONFIG;
};

object overhead_line {
	phases CN;
	from node956777839471;
	name 956777;
	longitude 743.656582566;
	to node839473956777;
	length 130;
	latitude 623.588538078;
	configuration 840428-LINECONFIG;
};

object overhead_line {
	phases CN;
	from node839473956777;
	name 839473;
	to node839475839473;
	longitude 745.521941887;
	length 226;
	latitude 628.281927613;
	configuration 840428-LINECONFIG;
};

object overhead_line {
	phases CN;
	from node839475839473;
	name 839475;
	longitude 745.219020288;
	to node839477839475;
	length 262;
	latitude 634.458720058;
	configuration 840428-LINECONFIG;
};

object overhead_line {
	phases CN;
	from node839477839475;
	name 839477;
	longitude 746.430706684;
	to node839479839477;
	length 81;
	latitude 636.331212256;
	configuration 840428-LINECONFIG;
};

object overhead_line {
	phases CN;
	from node839479839477;
	name 839479;
	longitude 746.048068875;
	to node839481839479;
	length 243;
	latitude 642.216187736;
	configuration 840428-LINECONFIG;
};

object overhead_line {
	phases CN;
	from node839481839479;
	name 839481;
	longitude 746.223444537;
	to node839483839481;
	length 183;
	latitude 646.666396466;
	configuration 840428-LINECONFIG;
};

object overhead_line {
	phases CN;
	from node839483839481;
	name 839483;
	longitude 746.366933716;
	to node839484839483;
	length 98;
	latitude 649.049568354;
	configuration 840428-LINECONFIG;
};

object overhead_line {
	phases CN;
	from node839484839483;
	name 839484;
	longitude 746.382876958;
	to node839486839484;
	length 10;
	latitude 649.244112998;
	configuration 840428-LINECONFIG;
};

object overhead_line {
	phases CN;
	from node839486839484;
	name 839486;
	longitude 746.94089043;
	to node839488839486;
	length 223;
	latitude 654.594090706;
	configuration 840428-LINECONFIG;
};

object overhead_line {
	phases CN;
	from node839488839486;
	name 839488;
	to node839490839488;
	longitude 748.407668699;
	length 219;
	latitude 659.554979127;
	configuration 840428-LINECONFIG;
};

object overhead_line {
	phases CN;
	from node839490839488;
	name 839490;
	longitude 748.009087648;
	to node839491839490;
	length 178;
	latitude 663.859279374;
	configuration 840428-LINECONFIG;
};

object overhead_line {
	phases CN;
	from node839491839490;
	name 839491;
	longitude 747.451074176;
	to node974130839491;
	length 135;
	latitude 667.020629838;
	configuration 840428-LINECONFIG;
};

object overhead_line {
	phases CN;
	from node974130839491;
	name 974130;
	longitude 746.956833672;
	to node839493974130;
	length 120;
	latitude 669.841527175;
	configuration 840428-LINECONFIG;
};

object overhead_line {
	phases CN;
	from node839493974130;
	name 839493;
	longitude 745.872693212;
	to node839496839493;
	length 261;
	latitude 675.99400154;
	configuration 840428-LINECONFIG;
};

object overhead_line {
	phases CN;
	from node839496839493;
	name 839496;
	longitude 745.649487823;
	to node839497839496;
	length 56;
	latitude 677.307177887;
	configuration 840428-LINECONFIG;
};

object overhead_line {
	phases CN;
	from node839497839496;
	name 839497;
	longitude 744.485631153;
	to node839499839497;
	length 191;
	latitude 681.611478134;
	configuration 840428-LINECONFIG;
};

object overhead_line {
	phases CN;
	from node839499839497;
	name 839499;
	longitude 743.130455578;
	to node839502839499;
	length 223;
	latitude 686.621002716;
	configuration 840428-LINECONFIG;
};

object overhead_line {
	phases CN;
	from node839502839499;
	name 839502;
	to node839503839502;
	longitude 742.253577265;
	length 91;
	latitude 688.906902282;
	configuration 840428-LINECONFIG;
};

object overhead_line {
	phases C;
	from node839503839502;
	name 839503;
	longitude 740.946231416;
	to node839505839503;
	length 134;
	latitude 689.830989341;
	configuration 840428-LINECONFIG;
};

object underground_line {
	phases C;
	from node839505839503;
	name 839505;
	longitude 740.9781179;
	to nodeFFRN1-F008x1839505;
	length 18;
	latitude 690.171442467;
	configuration 906381-LINECONFIG;
};

object fuse {
	phases C;
	from nodeFFRN1-F008x1839505;
	name FFRN1-F008x1;
	current_limit 9999.0 A;
	longitude 740.9781179;
	to node839506FFRN1-F008x1;
	latitude 690.171442467;
};

object underground_line {
	phases C;
	from node839506FFRN1-F008x1;
	name 839506;
	longitude 741.36075571;
	to node839509839506;
	length 65;
	latitude 691.898026182;
	configuration 906381-LINECONFIG;
};

object underground_line {
	phases C;
	from node839509839506;
	name 839509;
	longitude 741.536131372;
	to node839511839509;
	length 136;
	latitude 695.083694727;
	configuration 906381-LINECONFIG;
};

object underground_line {
	phases C;
	from node839511839509;
	name 839511;
	longitude 741.121607079;
	to node839512839511;
	length 53;
	latitude 696.445507235;
	configuration 906381-LINECONFIG;
};

object underground_line {
	phases C;
	from node839512839511;
	name 839512;
	longitude 740.802742238;
	to node839514839512;
	length 206;
	latitude 701.430713736;
	configuration 906381-LINECONFIG;
};

object underground_line {
	phases C;
	from node839514839512;
	name 839514;
	to node910237839514;
	longitude 737.964845151;
	length 184;
	latitude 701.941393426;
	configuration 906381-LINECONFIG;
};

object underground_line {
	phases C;
	from node910237839514;
	name 910237;
	longitude 737.837299215;
	to node906381910237;
	length 129;
	latitude 705.029789649;
	configuration 906381-LINECONFIG;
};

object line_configuration {
	name 906381-LINECONFIG;
	spacing 841826-LINESPACING;
	conductor_C 841826-LINECONFIGunderground_line_conductor393204;
};

object underground_line {
	phases C;
	from node906381910237;
	name 906381;
	longitude 737.805412731;
	to node839516906381;
	length 134;
	latitude 708.288412435;
	configuration 906381-LINECONFIG;
};

object underground_line {
	phases C;
	from node839516906381;
	name 839516;
	longitude 737.805412731;
	to node839517839516;
	length 40;
	latitude 709.261135654;
	configuration 906381-LINECONFIG;
};

object underground_line {
	phases C;
	from node839517839516;
	name 839517;
	longitude 737.773526247;
	to node839519839517;
	length 165;
	latitude 713.273618936;
	configuration 906381-LINECONFIG;
};

object underground_line {
	phases C;
	from node839519839517;
	name 839519;
	longitude 737.741639762;
	to node839521839519;
	length 174;
	latitude 717.504964941;
	configuration 906381-LINECONFIG;
};

object underground_line {
	phases C;
	from node839521839519;
	name 839521;
	longitude 734.839969708;
	to node1806-0087839521;
	length 331;
	latitude 724.216755157;
	configuration 906381-LINECONFIG;
};

object underground_line {
	phases C;
	from node906381910237;
	name 906382;
	to nodeT4303906382;
	longitude 734.664594045;
	length 194;
	latitude 705.200016212;
	configuration 970069-LINECONFIG;
};

object underground_line {
	phases C;
	from node910237839514;
	name 910238;
	longitude 735.079118339;
	to nodeT4006910238;
	length 204;
	latitude 700.603898999;
	configuration 970069-LINECONFIG;
};

object underground_line {
	phases C;
	from node839512839511;
	name 970774;
	longitude 742.046315118;
	to nodeT28678970774;
	length 80;
	latitude 699.339358813;
	configuration 970069-LINECONFIG;
};

object line_configuration {
	name 978204-LINECONFIG;
	spacing 917232-LINESPACING;
	conductor_A 978195-LINECONFIGunderground_line_conductor604;
	conductor_C 978195-LINECONFIGunderground_line_conductor604;
	conductor_B 978195-LINECONFIGunderground_line_conductor604;
};

object underground_line {
	phases ACB;
	from node978174978172;
	name 978204;
	longitude 737.48654789;
	to node978186978204;
	length 66;
	latitude 602.48044421;
	configuration 978204-LINECONFIG;
};

object overhead_line {
	phases ACBN;
	from node978186978204;
	name 978186;
	to node978169978186;
	longitude 733.245645502;
	length 270;
	latitude 602.553398452;
	configuration 978187-LINECONFIG;
};

object overhead_line {
	phases ACBN;
	from node978169978186;
	name 978169;
	longitude 729.530870102;
	to node978180978169;
	length 230;
	latitude 602.602034613;
	configuration 978187-LINECONFIG;
};

object overhead_line {
	phases ACBN;
	from node978180978169;
	name 978180;
	longitude 726.64514329;
	to node978184978180;
	length 180;
	latitude 602.674988854;
	configuration 978187-LINECONFIG;
};

object overhead_line {
	phases ACBN;
	from node978184978180;
	name 978184;
	longitude 723.584040815;
	to node978198978184;
	length 188;
	latitude 602.674988854;
	configuration 978187-LINECONFIG;
};

object overhead_line {
	phases ACBN;
	from node978198978184;
	name 978198;
	longitude 718.801068197;
	to node978173978198;
	length 297;
	latitude 602.723625015;
	configuration 978187-LINECONFIG;
};

object overhead_line {
	phases ACBN;
	from node978173978198;
	name 978173;
	longitude 715.197895492;
	to node978185978173;
	length 225;
	latitude 602.772261176;
	configuration 978187-LINECONFIG;
};

object overhead_line_conductor {
	diameter 0.721;
	name 978185_conductor_B;
	geometric_mean_radius 0.0304;
	resistance 0.216;
};

object overhead_line {
	phases ACBN;
	from node978185978173;
	name 978185;
	longitude 711.594722787;
	to node978190978185;
	length 225;
	latitude 602.845215418;
	configuration 978187-LINECONFIG;
};

object overhead_line {
	phases ACBN;
	from node978190978185;
	name 978190;
	longitude 707.97560684;
	to node978196978190;
	length 225;
	latitude 602.869533498;
	configuration 978187-LINECONFIG;
};

object overhead_line {
	phases ACBN;
	from node978196978190;
	name 978196;
	to node978178978196;
	longitude 704.420263861;
	length 225;
	latitude 602.94248774;
	configuration 978187-LINECONFIG;
};

object overhead_line {
	phases ACBN;
	from node978178978196;
	name 978178;
	longitude 699.956156084;
	to node978171978178;
	length 280;
	latitude 603.088396223;
	configuration 978187-LINECONFIG;
};

object overhead_line {
	phases ACBN;
	from node978171978178;
	name 978171;
	longitude 696.416756347;
	to node978175978171;
	length 250;
	latitude 603.112714303;
	configuration 978187-LINECONFIG;
};

object overhead_line {
	phases ACBN;
	from node978175978171;
	name 978175;
	longitude 692.829526884;
	to node978181978175;
	length 225;
	latitude 603.185668545;
	configuration 978187-LINECONFIG;
};

object overhead_line {
	phases ACBN;
	from node978181978175;
	name 978181;
	longitude 689.242297421;
	to node978197978181;
	length 225;
	latitude 603.258622786;
	configuration 978187-LINECONFIG;
};

object overhead_line {
	phases ACBN;
	from node978197978181;
	name 978197;
	longitude 684.937622065;
	to node978176978197;
	length 225;
	latitude 603.355895108;
	configuration 978187-LINECONFIG;
};

object overhead_line {
	phases ACBN;
	from node978176978197;
	name 978176;
	longitude 681.71708717;
	to node978189978176;
	length 203;
	latitude 603.380213189;
	configuration 978187-LINECONFIG;
};

object overhead_line {
	phases ACBN;
	from node978189978176;
	name 978189;
	longitude 678.480609032;
	to node978202978189;
	length 203;
	latitude 603.501803591;
	configuration 978187-LINECONFIG;
};

object overhead_line {
	phases ACBN;
	from node978202978189;
	name 978202;
	to node978182978202;
	longitude 675.276017378;
	length 203;
	latitude 603.574757832;
	configuration 978187-LINECONFIG;
};

object overhead_line {
	phases BN;
	from node978182978202;
	name 978182;
	longitude 675.1325282;
	to node978177978182;
	length 75;
	latitude 605.44725003;
	configuration 985054-LINECONFIG;
};

object overhead_line {
	phases BN;
	from node978177978182;
	name 978177;
	longitude 675.148471442;
	to node841713978177;
	length 82;
	latitude 607.538604953;
	configuration 985054-LINECONFIG;
};

object overhead_line {
	phases B;
	from node841713978177;
	name 841713;
	longitude 675.164414684;
	to nodeR2909x1841713;
	length 10;
	latitude 607.976330402;
	configuration 985054-LINECONFIG;
};

object fuse {
	phases B;
	from nodeR2909x1841713;
	name R2909x1;
	current_limit 9999.0 A;
	longitude 675.164414684;
	to node841714R2909x1;
	latitude 607.976330402;
};

object overhead_line {
	phases BN;
	from node841714R2909x1;
	name 841714;
	longitude 675.562995735;
	to node841715841714;
	length 509;
	latitude 619.989462165;
	configuration 985054-LINECONFIG;
};

object overhead_line {
	phases BN;
	from node841715841714;
	name 841715;
	longitude 675.562995735;
	to node969649841715;
	length 40;
	latitude 620.962185385;
	configuration 985054-LINECONFIG;
};

object overhead_line {
	phases BN;
	from node969649841715;
	name 969649;
	longitude 675.515166009;
	to node841718969649;
	length 440;
	latitude 631.662140802;
	configuration 985054-LINECONFIG;
};

object overhead_line {
	phases BN;
	from node841718969649;
	name 841718;
	to node841719841718;
	longitude 675.387620073;
	length 1043;
	latitude 657.025898756;
	configuration 985054-LINECONFIG;
};

object overhead_line {
	phases BN;
	from node841719841718;
	name 841719;
	longitude 672.597552712;
	to node841720841719;
	length 290;
	latitude 662.64337535;
	configuration 985054-LINECONFIG;
};

object overhead_line {
	phases BN;
	from node841720841719;
	name 841720;
	longitude 675.435449799;
	to node841722841720;
	length 233;
	latitude 666.291087424;
	configuration 985054-LINECONFIG;
};

object overhead_line {
	phases BN;
	from node841722841720;
	name 841722;
	longitude 675.339790346;
	to node841723841722;
	length 143;
	latitude 669.768572934;
	configuration 985054-LINECONFIG;
};

object overhead_line {
	phases B;
	from node841723841722;
	name 841723;
	longitude 676.535533501;
	to nodeFFRN1-F011x1841723;
	length 75;
	latitude 669.719936773;
	configuration 985054-LINECONFIG;
};

object fuse {
	phases B;
	from nodeFFRN1-F011x1841723;
	name FFRN1-F011x1;
	current_limit 9999.0 A;
	longitude 676.535533501;
	to node841724FFRN1-F011x1;
	latitude 669.719936773;
};

object underground_line {
	phases B;
	from node841724FFRN1-F011x1;
	name 841724;
	longitude 677.826936107;
	to node841725841724;
	length 81;
	latitude 669.744254853;
	configuration 841826-LINECONFIG;
};

object underground_line {
	phases B;
	from node841725841724;
	name 841725;
	longitude 679.979273785;
	to node1806-0099841725;
	length 135;
	latitude 669.768572934;
	configuration 841826-LINECONFIG;
};

object overhead_line {
	phases B;
	from node841723841722;
	name 841739;
	longitude 670.062577225;
	to node1806-28-011841739;
	length 331;
	latitude 669.963117578;
	configuration 985054-LINECONFIG;
};

object overhead_line {
	phases BN;
	from node841723841722;
	name 841740;
	longitude 675.29196062;
	to node841727841740;
	length 356;
	latitude 678.425809589;
	configuration 985054-LINECONFIG;
};

object underground_line {
	phases B;
	from node841727841740;
	name 841727;
	longitude 675.531109251;
	to nodeF18526x1841727;
	length 30;
	latitude 678.401491509;
	configuration 841826-LINECONFIG;
};

object fuse {
	phases B;
	from nodeF18526x1841727;
	name F18526x1;
	current_limit 9999.0 A;
	longitude 675.531109251;
	to node939255F18526x1;
	latitude 678.401491509;
};

object underground_line {
	phases B;
	from node939255F18526x1;
	name 939255;
	longitude 680.011160269;
	to node841728939255;
	length 281;
	latitude 678.498763831;
	configuration 841826-LINECONFIG;
};

object underground_line {
	phases B;
	from node841728939255;
	name 841728;
	longitude 684.060743752;
	to node1806-0098841728;
	length 254;
	latitude 678.304219187;
	configuration 841826-LINECONFIG;
};

object overhead_line {
	phases BN;
	from node841727841740;
	name 939235;
	longitude 675.260074136;
	to node841734939235;
	length 338;
	latitude 685.161917886;
	configuration 985054-LINECONFIG;
};

object underground_line {
	phases B;
	from node841734939235;
	name 841734;
	to nodeF18527x1841734;
	longitude 675.515166009;
	length 16;
	latitude 685.161917886;
	configuration 841826-LINECONFIG;
};

object fuse {
	phases B;
	from nodeF18527x1841734;
	name F18527x1;
	current_limit 9999.0 A;
	longitude 675.515166009;
	to node939275F18527x1;
	latitude 685.161917886;
};

object underground_line {
	phases B;
	from node939275F18527x1;
	name 939275;
	longitude 680.043046754;
	to node841736939275;
	length 312;
	latitude 684.067604264;
	configuration 841826-LINECONFIG;
};

object underground_line {
	phases B;
	from node841736939275;
	name 841736;
	longitude 681.637370959;
	to nodeT18549841736;
	length 126;
	latitude 684.748510518;
	configuration 841826-LINECONFIG;
};

object overhead_line {
	phases BN;
	from node841734939235;
	name 841742;
	longitude 675.196301168;
	to node841744841742;
	length 565;
	latitude 700.385036274;
	configuration 985054-LINECONFIG;
};

object overhead_line {
	phases BN;
	from node841744841742;
	name 841744;
	longitude 675.164414684;
	to node841748841744;
	length 302;
	latitude 707.729096583;
	configuration 985054-LINECONFIG;
};

object overhead_line {
	phases B;
	from node841748841744;
	name 841748;
	longitude 675.068755231;
	to node923535841748;
	length 869;
	latitude 730.053094476;
	configuration 985054-LINECONFIG;
};

object underground_line {
	phases B;
	from node923535841748;
	name 923535;
	longitude 675.451393041;
	to node923536923535;
	length 20;
	latitude 728.472419244;
	configuration 929369-LINECONFIG;
};

object underground_line {
	phases B;
	from node923536923535;
	name 923536;
	longitude 654.023675714;
	to node841999923536;
	length 1275;
	latitude 729.2749159;
	configuration 929369-LINECONFIG;
};

object underground_line {
	phases B;
	from node841999923536;
	name 841999;
	longitude 654.119335167;
	to nodeT10512841999;
	length 510;
	latitude 739.877598995;
	configuration 929369-LINECONFIG;
};

object underground_line {
	phases B;
	from node841999923536;
	name 923537;
	longitude 648.714576109;
	to nodeT10513923537;
	length 465;
	latitude 737.64033559;
	configuration 929369-LINECONFIG;
};

object underground_line {
	phases B;
	from node841999923536;
	name 923538;
	longitude 630.268245048;
	to node841997923538;
	length 1385;
	latitude 727.2808333;
	configuration 929369-LINECONFIG;
};

object underground_line {
	phases B;
	from node841997923538;
	name 841997;
	longitude 627.239029057;
	to nodeT10515841997;
	length 1271;
	latitude 695.618692498;
	configuration 929369-LINECONFIG;
};

object underground_line {
	phases B;
	from node923536923535;
	name 923594;
	to node923593923594;
	longitude 677.157319941;
	length 134;
	latitude 729.931504073;
	configuration 929369-LINECONFIG;
};

object overhead_line {
	phases BN;
	from node923593923594;
	name 923593;
	longitude 681.477938539;
	to node841751923593;
	length 304;
	latitude 729.76127751;
	configuration 985054-LINECONFIG;
};

object underground_line {
	phases B;
	from node841751923593;
	name 841751;
	longitude 682.817170872;
	to nodeFFRN1-F081x1841751;
	length 104;
	latitude 728.2778746;
	configuration 929369-LINECONFIG;
};

object fuse {
	phases B;
	from nodeFFRN1-F081x1841751;
	name FFRN1-F081x1;
	current_limit 9999.0 A;
	longitude 682.817170872;
	to node841752FFRN1-F081x1;
	latitude 728.2778746;
};

object underground_line {
	phases B;
	from node841752FFRN1-F081x1;
	name 841752;
	longitude 682.737454661;
	to node1806-0198841752;
	length 604;
	latitude 713.589753982;
	configuration 929369-LINECONFIG;
};

object overhead_line {
	phases BN;
	from node841751923593;
	name 841754;
	longitude 682.609908725;
	to node841755841754;
	length 71;
	latitude 729.688323268;
	configuration 985054-LINECONFIG;
};

object overhead_line {
	phases BN;
	from node841755841754;
	name 841755;
	to node841757841755;
	longitude 685.926103073;
	length 208;
	latitude 729.542414785;
	configuration 985054-LINECONFIG;
};

object overhead_line {
	phases BN;
	from node841757841755;
	name 841757;
	longitude 691.251145921;
	to node841759841757;
	length 334;
	latitude 729.2749159;
	configuration 985054-LINECONFIG;
};

object overhead_line {
	phases BN;
	from node841759841757;
	name 841759;
	longitude 696.863167125;
	to node841760841759;
	length 352;
	latitude 729.007417015;
	configuration 985054-LINECONFIG;
};

object overhead_line {
	phases BN;
	from node841760841759;
	name 841760;
	longitude 700.211247957;
	to node841762841760;
	length 210;
	latitude 728.861508532;
	configuration 985054-LINECONFIG;
};

object overhead_line {
	phases BN;
	from node841762841760;
	name 841762;
	longitude 700.705488461;
	to node841763841762;
	length 31;
	latitude 728.837190451;
	configuration 985054-LINECONFIG;
};

object underground_line {
	phases B;
	from node841763841762;
	name 841763;
	longitude 700.705488461;
	to nodeFFRN1-F140x1841763;
	length 18;
	latitude 729.2749159;
	configuration 929369-LINECONFIG;
};

object fuse {
	phases B;
	from nodeFFRN1-F140x1841763;
	name FFRN1-F140x1;
	current_limit 9999.0 A;
	longitude 700.705488461;
	to node841764FFRN1-F140x1;
	latitude 729.2749159;
};

object underground_line {
	phases B;
	from node841764FFRN1-F140x1;
	name 841764;
	longitude 700.641715493;
	to node1806-0062841764;
	length 400;
	latitude 739.002148097;
	configuration 929369-LINECONFIG;
};

object overhead_line {
	phases BN;
	from node841763841762;
	name 841766;
	longitude 706.317509666;
	to node841767841766;
	length 352;
	latitude 728.545373485;
	configuration 985054-LINECONFIG;
};

object underground_line {
	phases B;
	from node841767841766;
	name 841767;
	longitude 706.34939615;
	to nodeFFRN1-F176x1841767;
	length 54;
	latitude 727.232197139;
	configuration 929369-LINECONFIG;
};

object fuse {
	phases B;
	from nodeFFRN1-F176x1841767;
	name FFRN1-F176x1;
	current_limit 9999.0 A;
	longitude 706.34939615;
	to node841768FFRN1-F176x1;
	latitude 727.232197139;
};

object underground_line {
	phases B;
	from node841768FFRN1-F176x1;
	name 841768;
	longitude 706.604488023;
	to node1806-0088841768;
	length 577;
	latitude 713.200664694;
	configuration 929369-LINECONFIG;
};

object overhead_line {
	phases BN;
	from node841767841766;
	name 841770;
	to node923342841770;
	longitude 711.77009845;
	length 342;
	latitude 728.2778746;
	configuration 985054-LINECONFIG;
};

object overhead_line {
	phases BN;
	from node923342841770;
	name 923342;
	longitude 713.938379369;
	to node841771923342;
	length 136;
	latitude 728.180602278;
	configuration 985054-LINECONFIG;
};

object underground_line {
	phases B;
	from node841771923342;
	name 841771;
	longitude 717.063254813;
	to nodeFFRN1-F196x1841771;
	length 197;
	latitude 727.767194909;
	configuration 929369-LINECONFIG;
};

object fuse {
	phases B;
	from nodeFFRN1-F196x1841771;
	name FFRN1-F196x1;
	current_limit 9999.0 A;
	longitude 717.063254813;
	to node841772FFRN1-F196x1;
	latitude 727.767194909;
};

object underground_line {
	phases B;
	from node841772FFRN1-F196x1;
	name 841772;
	longitude 717.206743991;
	to node1806-0190841772;
	length 210;
	latitude 722.660398006;
	configuration 929369-LINECONFIG;
};

object overhead_line {
	phases BN;
	from node841771923342;
	name 841775;
	to node926654841775;
	longitude 714.01809558;
	length 1192;
	latitude 699.19345033;
	configuration 985054-LINECONFIG;
};

object overhead_line {
	phases B;
	from node926654841775;
	name 926654;
	longitude 714.129698274;
	to node1806-33-057926654;
	length 1630;
	latitude 659.554979127;
	configuration 985054-LINECONFIG;
};

object underground_line {
	phases B;
	from node841755841754;
	name 841777;
	longitude 682.625851967;
	to nodeFFRN1-F217x1841777;
	length 96;
	latitude 730.126048717;
	configuration 929369-LINECONFIG;
};

object fuse {
	phases B;
	from nodeFFRN1-F217x1841777;
	name FFRN1-F217x1;
	current_limit 9999.0 A;
	longitude 682.625851967;
	to node841778FFRN1-F217x1;
	latitude 730.126048717;
};

object underground_line {
	phases B;
	from node841778FFRN1-F217x1;
	name 841778;
	longitude 682.609908725;
	to node1806-0245841778;
	length 646;
	latitude 747.732338994;
	configuration 929369-LINECONFIG;
};

object underground_line {
	phases B;
	from node923536923535;
	name 923596;
	longitude 675.531109251;
	to node923597923596;
	length 165;
	latitude 734.916710574;
	configuration 929369-LINECONFIG;
};

object underground_line {
	phases B;
	from node923597923596;
	name 923597;
	longitude 676.009406513;
	to nodeT10500923597;
	length 20;
	latitude 736.035342277;
	configuration 929369-LINECONFIG;
};

object underground_line {
	phases B;
	from node923597923596;
	name 923599;
	longitude 674.797720116;
	to node923601923599;
	length 300;
	latitude 743.768491874;
	configuration 929369-LINECONFIG;
};

object underground_line {
	phases B;
	from node923601923599;
	name 923601;
	longitude 671.369923074;
	to nodeT10502923601;
	length 200;
	latitude 742.965995217;
	configuration 929369-LINECONFIG;
};

object underground_line {
	phases B;
	from node923601923599;
	name 923604;
	longitude 674.702060664;
	to node923605923604;
	length 275;
	latitude 752.741863576;
	configuration 929369-LINECONFIG;
};

object underground_line {
	phases B;
	from node923605923604;
	name 923605;
	longitude 671.210490653;
	to node921618923605;
	length 239;
	latitude 753.130952863;
	configuration 929369-LINECONFIG;
};

object underground_line {
	phases B;
	from node921618923605;
	name 921618;
	longitude 666.363745068;
	to node921620921618;
	length 352;
	latitude 753.009362461;
	configuration 929369-LINECONFIG;
};

object underground_line {
	phases B;
	from node921620921618;
	name 921620;
	longitude 665.199888397;
	to node923606921620;
	length 122;
	latitude 751.939366919;
	configuration 929369-LINECONFIG;
};

object underground_line {
	phases B;
	from node923606921620;
	name 923606;
	longitude 664.578101957;
	to nodeT7804923606;
	length 300;
	latitude 758.967292182;
	configuration 929369-LINECONFIG;
};

object underground_line {
	phases B;
	from node923605923604;
	name 923607;
	longitude 671.258320379;
	to node913658923607;
	length 680;
	latitude 768.864750942;
	configuration 929369-LINECONFIG;
};

object underground_line {
	phases B;
	from node913658923607;
	name 913658;
	longitude 674.909322811;
	to nodeT4020913658;
	length 164;
	latitude 768.840432862;
	configuration 929369-LINECONFIG;
};

object underground_line {
	phases B;
	from node913658923607;
	name 914581;
	longitude 671.274263622;
	to node913607914581;
	length 346;
	latitude 777.984031127;
	configuration 929369-LINECONFIG;
};

object underground_line {
	phases B;
	from node913607914581;
	name 913607;
	to node923608913607;
	longitude 675.419506557;
	length 260;
	latitude 778.10562153;
	configuration 929369-LINECONFIG;
};

object underground_line {
	phases B;
	from node923608913607;
	name 923608;
	longitude 672.50189326;
	to node841793923608;
	length 1875;
	latitude 820.321809265;
	configuration 929369-LINECONFIG;
};

object underground_line {
	phases B;
	from node841793923608;
	name 841793;
	longitude 676.280441628;
	to node923610841793;
	length 252;
	latitude 820.516353909;
	configuration 841826-LINECONFIG;
};

object underground_line {
	phases B;
	from node923610841793;
	name 923610;
	longitude 676.647136195;
	to nodeT10505923610;
	length 20;
	latitude 819.008632919;
	configuration 929369-LINECONFIG;
};

object underground_line {
	phases B;
	from node841793923608;
	name 923609;
	longitude 661.469169756;
	to nodeT10506923609;
	length 677;
	latitude 817.11182264;
	configuration 841826-LINECONFIG;
};

object underground_line {
	phases B;
	from node841793923608;
	name 923611;
	longitude 672.390290566;
	to node923612923611;
	length 890;
	latitude 840.165362947;
	configuration 929369-LINECONFIG;
};

object underground_line {
	phases B;
	from node923612923611;
	name 923612;
	longitude 672.852644585;
	to node923614923612;
	length 890;
	latitude 857.820289385;
	configuration 929369-LINECONFIG;
};

object underground_line {
	phases B;
	from node923614923612;
	name 923614;
	longitude 672.262744629;
	to node981769923614;
	length 50;
	latitude 856.944838487;
	configuration 929369-LINECONFIG;
};

object overhead_line {
	phases BN;
	from node981769923614;
	name 981769;
	longitude 668.436366535;
	to node981766981769;
	length 240;
	latitude 856.944838487;
	configuration 985054-LINECONFIG;
};

object overhead_line {
	phases BN;
	from node981766981769;
	name 981766;
	longitude 663.270756108;
	to node981768981766;
	length 324;
	latitude 856.944838487;
	configuration 985054-LINECONFIG;
};

object overhead_line {
	phases BN;
	from node981768981766;
	name 981768;
	longitude 657.531188967;
	to node981775981768;
	length 360;
	latitude 856.944838487;
	configuration 985054-LINECONFIG;
};

object overhead_line {
	phases BN;
	from node981775981768;
	name 981775;
	longitude 653.704810873;
	to node981773981775;
	length 240;
	latitude 856.944838487;
	configuration 985054-LINECONFIG;
};

object overhead_line {
	phases BN;
	from node981773981775;
	name 981773;
	to node981765981773;
	longitude 647.965243732;
	length 360;
	latitude 856.944838487;
	configuration 985054-LINECONFIG;
};

object overhead_line {
	phases BN;
	from node981765981773;
	name 981765;
	longitude 642.225676591;
	to node981777981765;
	length 360;
	latitude 856.944838487;
	configuration 985054-LINECONFIG;
};

object overhead_line {
	phases BN;
	from node981777981765;
	name 981777;
	longitude 637.889114751;
	to node981783981777;
	length 272;
	latitude 856.944838487;
	configuration 985054-LINECONFIG;
};

object overhead_line {
	phases BN;
	from node981783981777;
	name 981783;
	longitude 633.903304237;
	to node981767981783;
	length 250;
	latitude 856.944838487;
	configuration 985054-LINECONFIG;
};

object overhead_line {
	phases BN;
	from node981767981783;
	name 981767;
	longitude 629.120331619;
	to node981781981767;
	length 300;
	latitude 856.944838487;
	configuration 985054-LINECONFIG;
};

object overhead_line {
	phases BN;
	from node981781981767;
	name 981781;
	longitude 624.353302244;
	to node981779981781;
	length 300;
	latitude 856.5557492;
	configuration 985054-LINECONFIG;
};

object overhead_line {
	phases BN;
	from node981779981781;
	name 981779;
	longitude 619.665989079;
	to node981772981779;
	length 294;
	latitude 856.5557492;
	configuration 985054-LINECONFIG;
};

object overhead_line {
	phases BN;
	from node981772981779;
	name 981772;
	longitude 614.723584041;
	to node981776981772;
	length 310;
	latitude 855.947797187;
	configuration 985054-LINECONFIG;
};

object overhead_line {
	phases BN;
	from node981776981772;
	name 981776;
	to node981774981776;
	longitude 609.940611423;
	length 300;
	latitude 855.947797187;
	configuration 985054-LINECONFIG;
};

object overhead_line {
	phases BN;
	from node981774981776;
	name 981774;
	longitude 606.114233329;
	to node981771981774;
	length 240;
	latitude 855.972115268;
	configuration 985054-LINECONFIG;
};

object overhead_line {
	phases BN;
	from node981771981774;
	name 981771;
	longitude 600.534098609;
	to node981778981771;
	length 350;
	latitude 855.972115268;
	configuration 985054-LINECONFIG;
};

object overhead_line {
	phases BN;
	from node981778981771;
	name 981778;
	longitude 595.751125991;
	to node981782981778;
	length 300;
	latitude 855.972115268;
	configuration 985054-LINECONFIG;
};

object overhead_line {
	phases BN;
	from node981782981778;
	name 981782;
	longitude 591.430507394;
	to node981770981782;
	length 270;
	latitude 855.947797187;
	configuration 985054-LINECONFIG;
};

object overhead_line {
	phases B;
	from node981770981782;
	name 981770;
	longitude 591.127585795;
	to node6920x1-Bx1981770;
	length 20;
	latitude 855.947797187;
	configuration 985054-LINECONFIG;
};

object underground_line {
	phases B;
	from node923614923612;
	name 923615;
	longitude 674.765833632;
	to node928725923615;
	length 310;
	latitude 862.465042759;
	configuration 929369-LINECONFIG;
};

object underground_line {
	phases B;
	from node928725923615;
	name 928725;
	longitude 673.1236797;
	to node928730928725;
	length 384;
	latitude 870.562963563;
	configuration 929369-LINECONFIG;
};

object underground_line {
	phases B;
	from node928730928725;
	name 928730;
	longitude 666.714496393;
	to node928731928730;
	length 742;
	latitude 888.436752726;
	configuration 929369-LINECONFIG;
};

object underground_line {
	phases B;
	from node928731928730;
	name 928731;
	longitude 678.050141496;
	to node928127928731;
	length 935;
	latitude 900.620111053;
	configuration 929369-LINECONFIG;
};

object underground_line {
	phases B;
	from node928127928731;
	name 928127;
	longitude 683.247638407;
	to nodeT7903928127;
	length 1096;
	latitude 878.320431241;
	configuration 929369-LINECONFIG;
};

object underground_line {
	phases B;
	from node928127928731;
	name 928733;
	to nodeT7871928733;
	longitude 677.92259556;
	length 32;
	latitude 899.866250557;
	configuration 929369-LINECONFIG;
};

object underground_line {
	phases B;
	from node928127928731;
	name 928735;
	longitude 679.182111682;
	to node837409928735;
	length 250;
	latitude 905.216228266;
	configuration 929369-LINECONFIG;
};

object underground_line {
	phases B;
	from node837409928735;
	name 837409;
	longitude 674.446968791;
	to node924936837409;
	length 812;
	latitude 921.898431484;
	configuration 841826-LINECONFIG;
};

object underground_line {
	phases B;
	from node924936837409;
	name 924936;
	longitude 673.841125593;
	to node965706924936;
	length 573;
	latitude 935.784055445;
	configuration 841826-LINECONFIG;
};

object underground_line {
	phases B;
	from node965706924936;
	name 965706;
	longitude 673.729522898;
	to node965707965706;
	length 501;
	latitude 946.313784299;
	configuration 929369-LINECONFIG;
};

object underground_line {
	phases B;
	from node965707965706;
	name 965707;
	longitude 673.490374268;
	to node837415965707;
	length 382;
	latitude 954.825112471;
	configuration 929369-LINECONFIG;
};

object underground_line {
	phases B;
	from node837415965707;
	name 837415;
	longitude 672.996133764;
	to node837416837415;
	length 318;
	latitude 962.485307826;
	configuration 929369-LINECONFIG;
};

object underground_line {
	phases B;
	from node837416837415;
	name 837416;
	to node837417837416;
	longitude 672.884531069;
	length 24;
	latitude 963.093259839;
	configuration 929369-LINECONFIG;
};

object underground_line {
	phases B;
	from node837417837416;
	name 837417;
	longitude 673.330941847;
	to node928193837417;
	length 338;
	latitude 971.288452965;
	configuration 929369-LINECONFIG;
};

object underground_line {
	phases B;
	from node928193837417;
	name 928193;
	longitude 673.314998605;
	to nodeT12193928193;
	length 118;
	latitude 979.483646091;
	configuration 929369-LINECONFIG;
};

object underground_line {
	phases B;
	from node924936837409;
	name 924937;
	longitude 678.337119853;
	to nodeT14008924937;
	length 250;
	latitude 919.077534147;
	configuration 929369-LINECONFIG;
};

object underground_line {
	phases B;
	from node837409928735;
	name 928736;
	longitude 684.060743752;
	to node928741928736;
	length 350;
	latitude 909.690755076;
	configuration 929369-LINECONFIG;
};

object underground_line {
	phases B;
	from node928741928736;
	name 928741;
	to node928742928741;
	longitude 692.861413368;
	length 770;
	latitude 918.080492846;
	configuration 929369-LINECONFIG;
};

object underground_line {
	phases B;
	from node928742928741;
	name 928742;
	longitude 699.717007453;
	to node928748928742;
	length 578;
	latitude 924.865237304;
	configuration 929369-LINECONFIG;
};

object underground_line {
	phases B;
	from node928748928742;
	name 928748;
	longitude 706.779863685;
	to node928749928748;
	length 556;
	latitude 931.09066591;
	configuration 929369-LINECONFIG;
};

object underground_line {
	phases B;
	from node928749928748;
	name 928749;
	longitude 703.511499063;
	to nodeT15654928749;
	length 336;
	latitude 935.784055445;
	configuration 929369-LINECONFIG;
};

object underground_line {
	phases B;
	from node928749928748;
	name 928750;
	longitude 729.467097134;
	to node928752928750;
	length 1608;
	latitude 948.575365784;
	configuration 929369-LINECONFIG;
};

object underground_line {
	phases B;
	from node928752928750;
	name 928752;
	to node6159x1-A928752;
	longitude 732.289050979;
	length 220;
	latitude 951.688080088;
	configuration 929369-LINECONFIG;
};

object underground_line {
	phases B;
	from node841720841719;
	name 842003;
	longitude 672.565666228;
	to nodeF21679x1842003;
	length 50;
	latitude 661.427471325;
	configuration 929369-LINECONFIG;
};

object fuse {
	phases B;
	from nodeF21679x1842003;
	name F21679x1;
	current_limit 9999.0 A;
	longitude 672.565666228;
	to node842004F21679x1;
	latitude 661.427471325;
};

object underground_line {
	phases B;
	from node842004F21679x1;
	name 842004;
	longitude 664.881023556;
	to node842006842004;
	length 489;
	latitude 659.482024886;
	configuration 929369-LINECONFIG;
};

object underground_line {
	phases B;
	from node842006842004;
	name 842006;
	longitude 652.780102834;
	to nodeT18597842006;
	length 763;
	latitude 657.658168849;
	configuration 929369-LINECONFIG;
};

object line_configuration {
	name 978187-LINECONFIG;
	spacing 985293-LINESPACING;
	conductor_N 926524_conductor_C;
	conductor_B 978185_conductor_B;
	conductor_A 978185_conductor_B;
	conductor_C 978185_conductor_B;
};

object overhead_line {
	phases ACBN;
	from node978182978202;
	name 978187;
	longitude 670.620590697;
	to node979018978187;
	length 292;
	latitude 603.380213189;
	configuration 978187-LINECONFIG;
};

object overhead_line {
	phases ACBN;
	from node979018978187;
	name 979018;
	longitude 670.620590697;
	to node979019979018;
	length 60;
	latitude 600.97272322;
	configuration 978939-LINECONFIG;
};

object overhead_line {
	phases ACBN;
	from node979019979018;
	name 979019;
	longitude 667.192793655;
	to node978936979019;
	length 250;
	latitude 600.851132817;
	configuration 978939-LINECONFIG;
};

object overhead_line {
	phases ACBN;
	from node978936979019;
	name 978936;
	longitude 663.270756108;
	to node978937978936;
	length 250;
	latitude 600.753860495;
	configuration 978939-LINECONFIG;
};

object overhead_line {
	phases ACBN;
	from node978937978936;
	name 978937;
	to node978938978937;
	longitude 659.221172625;
	length 250;
	latitude 600.48636161;
	configuration 978939-LINECONFIG;
};

object overhead_line {
	phases ACBN;
	from node978938978937;
	name 978938;
	longitude 655.299135079;
	to node978939978938;
	length 250;
	latitude 600.437725449;
	configuration 978939-LINECONFIG;
};

object line_configuration {
	name 978939-LINECONFIG;
	conductor_A 985322_conductor_B;
	spacing 985293-LINESPACING;
	conductor_N 985293_conductor_N;
	conductor_C 985322_conductor_B;
	conductor_B 985322_conductor_B;
};

object overhead_line {
	phases ACBN;
	from node978939978938;
	name 978939;
	longitude 651.393040775;
	to node978940978939;
	length 250;
	latitude 600.364771207;
	configuration 978939-LINECONFIG;
};

object overhead_line {
	phases ACBN;
	from node978940978939;
	name 978940;
	longitude 647.885527522;
	to node979020978940;
	length 230;
	latitude 600.291816966;
	configuration 978939-LINECONFIG;
};

object overhead_line {
	phases ACBN;
	from node979020978940;
	name 979020;
	longitude 643.979433218;
	to node979022979020;
	length 225;
	latitude 600.267498885;
	configuration 978939-LINECONFIG;
};

object overhead_line {
	phases ACBN;
	from node979022979020;
	name 979022;
	longitude 639.260233568;
	to node925819979022;
	length 305;
	latitude 600.048636161;
	configuration 978939-LINECONFIG;
};

object underground_line {
	phases B;
	from node925819979022;
	name 925819;
	longitude 639.180517358;
	to nodeF10787x1925819;
	length 20;
	latitude 600.534997771;
	configuration 929369-LINECONFIG;
};

object fuse {
	phases B;
	from nodeF10787x1925819;
	name F10787x1;
	current_limit 9999.0 A;
	longitude 639.180517358;
	to node925823F10787x1;
	latitude 600.534997771;
};

object underground_line {
	phases B;
	from node925823F10787x1;
	name 925823;
	to node925820925823;
	longitude 639.068914664;
	length 205;
	latitude 604.42589065;
	configuration 929369-LINECONFIG;
};

object underground_line {
	phases B;
	from node925820925823;
	name 925820;
	longitude 638.271752561;
	to nodeT10789925820;
	length 620;
	latitude 619.527418636;
	configuration 929369-LINECONFIG;
};

object overhead_line {
	phases ACBN;
	from node925819979022;
	name 979023;
	longitude 635.290366296;
	to node979024979023;
	length 250;
	latitude 600.170226563;
	configuration 978939-LINECONFIG;
};

object underground_line {
	phases A;
	from node979024979023;
	name 979024;
	longitude 635.417912232;
	to nodeF28659x1979024;
	length 30;
	latitude 599.732501115;
	configuration 982349-LINECONFIG;
};

object fuse {
	phases A;
	from nodeF28659x1979024;
	name F28659x1;
	current_limit 9999.0 A;
	longitude 635.417912232;
	to node839562F28659x1;
	latitude 599.732501115;
};

object underground_line {
	phases A;
	from node839562F28659x1;
	name 839562;
	to nodeT28660839562;
	longitude 638.11232014;
	length 252;
	latitude 592.874802416;
	configuration 982349-LINECONFIG;
};

object overhead_line {
	phases ACB;
	from node979024979023;
	name 979025;
	longitude 631.129180119;
	to node979026979025;
	length 250;
	latitude 600.121590402;
	configuration 978939-LINECONFIG;
};

object underground_line {
	phases ACB;
	from node979026979025;
	name 979026;
	longitude 630.746542309;
	to node839565979026;
	length 20;
	latitude 599.951363839;
	configuration 917226-LINECONFIG;
};

object underground_line {
	phases ACB;
	from node839565979026;
	name 839565;
	longitude 617.529594643;
	to node979021839565;
	length 963;
	latitude 600.072954241;
	configuration 917226-LINECONFIG;
};

object overhead_line {
	phases ACBN;
	from node979021839565;
	name 979021;
	longitude 614.117740843;
	to node978941979021;
	length 214;
	latitude 600.170226563;
	configuration 978939-LINECONFIG;
};

object overhead_line {
	phases ACBN;
	from node978941979021;
	name 978941;
	longitude 610.674000558;
	to node979028978941;
	length 214;
	latitude 600.218862724;
	configuration 978939-LINECONFIG;
};

object overhead_line {
	phases ACBN;
	from node979028978941;
	name 979028;
	to node979029979028;
	longitude 607.27809;
	length 210;
	latitude 600.194544644;
	configuration 978939-LINECONFIG;
};

object overhead_line {
	phases ACBN;
	from node979029979028;
	name 979029;
	longitude 602.000876878;
	to node979030979029;
	length 300;
	latitude 600.145908483;
	configuration 978939-LINECONFIG;
};

object overhead_line {
	phases ACBN;
	from node979030979029;
	name 979030;
	longitude 596.755550241;
	to node979031979030;
	length 310;
	latitude 600.121590402;
	configuration 978939-LINECONFIG;
};

object overhead_line {
	phases ACBN;
	from node979031979030;
	name 979031;
	longitude 594.093028817;
	to node979032979031;
	length 174;
	latitude 600.145908483;
	configuration 978939-LINECONFIG;
};

object overhead_line {
	phases ACBN;
	from node979032979031;
	name 979032;
	longitude 592.163896528;
	to node976752979032;
	length 174;
	latitude 600.194544644;
	configuration 978939-LINECONFIG;
};

object overhead_line {
	phases A;
	from node976752979032;
	name 976752;
	longitude 591.988520866;
	to node976753976752;
	length 60;
	latitude 599.246139505;
	configuration 979060-LINECONFIG;
};

object underground_line {
	phases A;
	from node976753976752;
	name 976753;
	longitude 592.466818127;
	to nodeR28918x1976753;
	length 10;
	latitude 598.103189722;
	configuration 982349-LINECONFIG;
};

object fuse {
	phases A;
	from nodeR28918x1976753;
	name R28918x1;
	current_limit 9999.0 A;
	longitude 592.466818127;
	to node976756R28918x1;
	latitude 598.103189722;
};

object underground_line {
	phases A;
	from node976756R28918x1;
	name 976756;
	to node976759976756;
	longitude 592.466818127;
	length 26;
	latitude 597.568191951;
	configuration 982349-LINECONFIG;
};

object underground_line {
	phases A;
	from node976759976756;
	name 976759;
	longitude 592.690023516;
	to node976764976759;
	length 730;
	latitude 580.375309042;
	configuration 982349-LINECONFIG;
};

object underground_line {
	phases A;
	from node976764976759;
	name 976764;
	longitude 592.817569453;
	to node976754976764;
	length 372;
	latitude 573.128521055;
	configuration 982349-LINECONFIG;
};

object underground_line {
	phases A;
	from node976754976764;
	name 976754;
	longitude 592.865399179;
	to node976774976754;
	length 20;
	latitude 572.593523285;
	configuration 982349-LINECONFIG;
};

object overhead_line {
	phases A;
	from node976774976754;
	name 976774;
	longitude 592.849455937;
	to nodeF28814x1976774;
	length 10;
	latitude 572.253070158;
	configuration 966764-LINECONFIG;
};

object fuse {
	phases A;
	from nodeF28814x1976774;
	name F28814x1;
	current_limit 9999.0 A;
	longitude 592.849455937;
	to node976760F28814x1;
	latitude 572.253070158;
};

object overhead_line {
	phases A;
	from node976760F28814x1;
	name 976760;
	longitude 590.186934513;
	to node1806-20-027976760;
	length 180;
	latitude 570.137397155;
	configuration 966764-LINECONFIG;
};

object underground_line {
	phases A;
	from node976754976764;
	name 976758;
	longitude 593.040774842;
	to node914393976758;
	length 1420;
	latitude 538.377984031;
	configuration 982349-LINECONFIG;
};

object underground_line {
	phases A;
	from node914393976758;
	name 914393;
	longitude 591.255131731;
	to node914391914393;
	length 120;
	latitude 537.624123536;
	configuration 982349-LINECONFIG;
};

object underground_line {
	phases A;
	from node914391914393;
	name 914391;
	longitude 591.207302005;
	to nodeT3935914391;
	length 126;
	latitude 541.417744093;
	configuration 982349-LINECONFIG;
};

object underground_line {
	phases A;
	from node914393976758;
	name 976755;
	longitude 591.462393878;
	to node910687976755;
	length 802;
	latitude 521.695780813;
	configuration 982349-LINECONFIG;
};

object underground_line {
	phases A;
	from node910687976755;
	name 910687;
	longitude 586.392442903;
	to nodeT4205910687;
	length 420;
	latitude 527.678028614;
	configuration 982349-LINECONFIG;
};

object underground_line {
	phases A;
	from node910687976755;
	name 976765;
	longitude 593.056718084;
	to node976750976765;
	length 804;
	latitude 507.664248369;
	configuration 982349-LINECONFIG;
};

object underground_line {
	phases A;
	from node976750976765;
	name 976750;
	longitude 588.544780581;
	to node976773976750;
	length 480;
	latitude 505.451303044;
	configuration 982349-LINECONFIG;
};

object underground_line {
	phases A;
	from node976773976750;
	name 976773;
	longitude 581.992108095;
	to node976762976773;
	length 398;
	latitude 504.794714871;
	configuration 982349-LINECONFIG;
};

object underground_line {
	phases A;
	from node976762976773;
	name 976762;
	longitude 577.783092192;
	to node976768976762;
	length 338;
	latitude 505.305394561;
	configuration 982349-LINECONFIG;
};

object underground_line {
	phases A;
	from node976768976762;
	name 976768;
	longitude 568.424409104;
	to node976757976768;
	length 686;
	latitude 505.062213756;
	configuration 982349-LINECONFIG;
};

object underground_line {
	phases A;
	from node976757976768;
	name 976757;
	longitude 560.213639444;
	to node976749976757;
	length 418;
	latitude 505.961982734;
	configuration 982349-LINECONFIG;
};

object underground_line {
	phases A;
	from node976749976757;
	name 976749;
	to node976751976749;
	longitude 552.768145402;
	length 692;
	latitude 506.278117781;
	configuration 982349-LINECONFIG;
};

object underground_line {
	phases A;
	from node976751976749;
	name 976751;
	longitude 552.768145402;
	to nodeT28813976751;
	length 132;
	latitude 503.408584282;
	configuration 982349-LINECONFIG;
};

object underground_line {
	phases A;
	from node976751976749;
	name 976766;
	longitude 543.521065009;
	to node12286x1-Ax1976766;
	length 678;
	latitude 507.445385644;
	configuration 982349-LINECONFIG;
};

object underground_line {
	phases A;
	from node976762976773;
	name 976767;
	longitude 581.880505401;
	to nodeT28808976767;
	length 124;
	latitude 502.508815304;
	configuration 982349-LINECONFIG;
};

object underground_line {
	phases A;
	from node976750976765;
	name 976761;
	longitude 593.216150504;
	to node976772976761;
	length 60;
	latitude 506.180845459;
	configuration 982349-LINECONFIG;
};

object overhead_line {
	phases A;
	from node976772976761;
	name 976772;
	longitude 593.088604568;
	to nodeF28815x1976772;
	length 240;
	latitude 505.791756171;
	configuration 966764-LINECONFIG;
};

object fuse {
	phases A;
	from nodeF28815x1976772;
	name F28815x1;
	current_limit 9999.0 A;
	longitude 593.088604568;
	to node976771F28815x1;
	latitude 505.791756171;
};

object overhead_line {
	phases AN;
	from node976771F28815x1;
	name 976771;
	longitude 591.63776954;
	to node839661976771;
	length 240;
	latitude 501.122684716;
	configuration 966764-LINECONFIG;
};

object overhead_line {
	phases AN;
	from node839661976771;
	name 839661;
	longitude 591.669656025;
	to node839663839661;
	length 324;
	latitude 493.243626636;
	configuration 966764-LINECONFIG;
};

object overhead_line {
	phases AN;
	from node839663839661;
	name 839663;
	longitude 591.765315477;
	to node839665839663;
	length 269;
	latitude 486.872289547;
	configuration 966764-LINECONFIG;
};

object overhead_line {
	phases A;
	from node839665839663;
	name 839665;
	to node1806-20-026839665;
	longitude 591.829088445;
	length 448;
	latitude 475.904835245;
	configuration 966764-LINECONFIG;
};

object underground_line {
	phases A;
	from node839661976771;
	name 976776;
	to nodeT28805976776;
	longitude 588.369404918;
	length 222;
	latitude 502.338588741;
	configuration 982349-LINECONFIG;
};

object underground_line {
	phases A;
	from node976750976765;
	name 976763;
	longitude 593.200207262;
	to nodeF28919x1976763;
	length 20;
	latitude 507.22652292;
	configuration 982349-LINECONFIG;
};

object fuse {
	phases A;
	from nodeF28919x1976763;
	name F28919x1;
	current_limit 9999.0 A;
	longitude 593.200207262;
	to node976775F28919x1;
	latitude 507.22652292;
};

object underground_line {
	phases A;
	from node976775F28919x1;
	name 976775;
	to node962362976775;
	longitude 618.693451313;
	length 1655;
	latitude 507.615612208;
	configuration 982349-LINECONFIG;
};

object underground_line {
	phases A;
	from node962362976775;
	name 962362;
	longitude 617.162900076;
	to nodeT16939962362;
	length 212;
	latitude 510.023102176;
	configuration 982349-LINECONFIG;
};

object underground_line {
	phases A;
	from node962362976775;
	name 962382;
	longitude 640.376260513;
	to node962381962382;
	length 1760;
	latitude 505.840392332;
	configuration 982349-LINECONFIG;
};

object underground_line {
	phases A;
	from node962381962382;
	name 962381;
	longitude 651.28143808;
	to node962401962381;
	length 840;
	latitude 500.198597657;
	configuration 982349-LINECONFIG;
};

object underground_line {
	phases A;
	from node962401962381;
	name 962401;
	longitude 652.74821635;
	to node839583962401;
	length 596.902;
	latitude 488.355692457;
	configuration 982349-LINECONFIG;
};

object underground_line {
	phases A;
	from node839583962401;
	name 839583;
	longitude 641.300968552;
	to node1806-0229839583;
	length 718;
	latitude 488.01523933;
	configuration 982349-LINECONFIG;
};

object underground_line {
	phases A;
	from node962381962382;
	name 962383;
	longitude 640.232771334;
	to nodeT16942962383;
	length 20;
	latitude 506.351072022;
	configuration 982349-LINECONFIG;
};

object underground_line {
	phases A;
	from node976764976759;
	name 976769;
	longitude 592.705966758;
	to nodeT28801976769;
	length 20;
	latitude 580.813034491;
	configuration 982349-LINECONFIG;
};

object underground_line {
	phases A;
	from node976752979032;
	name 979033;
	longitude 592.116066802;
	to nodeF16133x1979033;
	length 10;
	latitude 600.559315851;
	configuration 982349-LINECONFIG;
};

object fuse {
	phases A;
	from nodeF16133x1979033;
	name F16133x1;
	current_limit 9999.0 A;
	longitude 592.116066802;
	to node979034F16133x1;
	latitude 600.559315851;
};

object underground_line {
	phases A;
	from node979034F16133x1;
	name 979034;
	longitude 589.676750767;
	to node948315979034;
	length 720;
	latitude 615.539253435;
	configuration 982349-LINECONFIG;
};

object underground_line {
	phases A;
	from node948315979034;
	name 948315;
	longitude 589.804296704;
	to node839677948315;
	length 630;
	latitude 636.817573866;
	configuration 982349-LINECONFIG;
};

object underground_line {
	phases A;
	from node839677948315;
	name 839677;
	longitude 584.240105225;
	to nodeT16137839677;
	length 467;
	latitude 645.645037085;
	configuration 840498-LINECONFIG;
};

object underground_line {
	phases A;
	from node839677948315;
	name 948335;
	to nodeT16135948335;
	longitude 589.023077843;
	length 20;
	latitude 636.112349532;
	configuration 982349-LINECONFIG;
};

object overhead_line {
	phases ACBN;
	from node976752979032;
	name 979035;
	longitude 587.588186058;
	to node979036979035;
	length 275;
	latitude 600.121590402;
	configuration 978939-LINECONFIG;
};

object overhead_line {
	phases ACBN;
	from node979036979035;
	name 979036;
	longitude 584.224161983;
	to node978942979036;
	length 213;
	latitude 600.048636161;
	configuration 978939-LINECONFIG;
};

object overhead_line {
	phases ACBN;
	from node978942979036;
	name 978942;
	to node978943978942;
	longitude 580.907967635;
	length 212;
	latitude 600.072954241;
	configuration 978939-LINECONFIG;
};

object overhead_line {
	phases ACBN;
	from node978943978942;
	name 978943;
	longitude 577.464227351;
	to node978944978943;
	length 212;
	latitude 599.97568192;
	configuration 978939-LINECONFIG;
};

object overhead_line {
	phases ACBN;
	from node978944978943;
	name 978944;
	longitude 572.729084459;
	to node978946978944;
	length 296;
	latitude 599.829773437;
	configuration 978939-LINECONFIG;
};

object underground_line {
	phases C;
	from node978946978944;
	name 978946;
	longitude 573.143608753;
	to nodeF28663x1978946;
	length 10;
	latitude 600.389089288;
	configuration 970069-LINECONFIG;
};

object fuse {
	phases C;
	from nodeF28663x1978946;
	name F28663x1;
	current_limit 9999.0 A;
	longitude 573.143608753;
	to node841704F28663x1;
	latitude 600.389089288;
};

object underground_line {
	phases C;
	from node841704F28663x1;
	name 841704;
	longitude 573.478416836;
	to nodeT28664841704;
	length 360;
	latitude 608.535646253;
	configuration 970069-LINECONFIG;
};

object overhead_line {
	phases ACBN;
	from node978946978944;
	name 978947;
	to node978948978947;
	longitude 570.034676551;
	length 170;
	latitude 599.805455356;
	configuration 978939-LINECONFIG;
};

object overhead_line {
	phases ACBN;
	from node978948978947;
	name 978948;
	longitude 567.180836223;
	to node978949978948;
	length 168;
	latitude 599.708183034;
	configuration 978939-LINECONFIG;
};

object overhead_line {
	phases ACBN;
	from node978949978948;
	name 978949;
	longitude 561.696360955;
	to node978952978949;
	length 318;
	latitude 599.732501115;
	configuration 978939-LINECONFIG;
};

object overhead_line {
	phases ACBN;
	from node978952978949;
	name 978952;
	longitude 558.284507155;
	to node978953978952;
	length 215;
	latitude 599.683864954;
	configuration 978939-LINECONFIG;
};

object overhead_line {
	phases ACBN;
	from node978953978952;
	name 978953;
	longitude 554.856710112;
	to node978954978953;
	length 215;
	latitude 599.635228793;
	configuration 978939-LINECONFIG;
};

object overhead_line {
	phases ACBN;
	from node978954978953;
	name 978954;
	longitude 551.636175216;
	to node978955978954;
	length 215;
	latitude 599.48932031;
	configuration 978939-LINECONFIG;
};

object overhead_line {
	phases ACBN;
	from node978955978954;
	name 978955;
	longitude 547.219897166;
	to node978956978955;
	length 275;
	latitude 599.537956471;
	configuration 978939-LINECONFIG;
};

object overhead_line {
	phases ACBN;
...